Test_Systems/European_LV_Test_Feeder-G/m1/Branches.dss
New "Line.line1" bus1=1 bus2=2 phases=3 linecode=4c_70 Seasons=1 Ratings=[400,] normamps=400 emergamps=600 length=1.098 units=m
New "Line.line2" bus1=2 bus2=3 phases=3 linecode=4c_70 Seasons=1 Ratings=[400,] normamps=400 emergamps=600 length=0.11511 units=m
New "Line.line3" bus1=3 bus2=4 phases=3 linecode=4c_70 Seasons=1 Ratings=[400,] normamps=400 emergamps=600 length=0.10784 units=m
New "Line.line4" bus1=4 bus2=5 phases=3 linecode=4c_70 Seasons=1 Ratings=[400,] normamps=400 emergamps=600 length=0.094021 units=m
New "Line.line5" bus1=5 bus2=6 phases=3 linecode=4c_70 Seasons=1 Ratings=[400,] normamps=400 emergamps=600 length=0.14812 units=m
New "Line.line6" bus1=6 bus2=7 phases=3 linecode=4c_70 Seasons=1 Ratings=[400,] normamps=400 emergamps=600 length=10.0863 units=m
New "Line.line7" bus1=7 bus2=8 phases=3 linecode=4c_70 Seasons=1 Ratings=[400,] normamps=400 emergamps=600 length=0.45175 units=m
New "Line.line8" bus1=8 bus2=9 phases=3 linecode=4c_70 Seasons=1 Ratings=[400,] normamps=400 emergamps=600 length=0.376 units=m
New "Line.line9" bus1=9 bus2=10 phases=3 linecode=4c_70 Seasons=1 Ratings=[400,] normamps=400 emergamps=600 length=0.32997 units=m
New "Line.line10" bus1=10 bus2=11 phases=3 linecode=4c_70 Seasons=1 Ratings=[400,] normamps=400 emergamps=600 length=0.24622 units=m
New "Line.line11" bus1=11 bus2=12 phases=3 linecode=4c_70 Seasons=1 Ratings=[400,] normamps=400 emergamps=600 length=0.23114 units=m
New "Line.line12" bus1=12 bus2=13 phases=3 linecode=4c_70 Seasons=1 Ratings=[400,] normamps=400 emergamps=600 length=0.14213 units=m
New "Line.line13" bus1=13 bus2=14 phases=3 linecode=4c_70 Seasons=1 Ratings=[400,] normamps=400 emergamps=600 length=0.35384 units=m
New "Line.line14" bus1=14 bus2=15 phases=3 linecode=4c_70 Seasons=1 Ratings=[400,] normamps=400 emergamps=600 length=2.8664 units=m
New "Line.line16" bus1=15 bus2=17 phases=3 linecode=4c_70 Seasons=1 Ratings=[400,] normamps=400 emergamps=600 length=3.476 units=m
New "Line.line18" bus1=17 bus2=19 phases=3 linecode=4c_70 Seasons=1 Ratings=[400,] normamps=400 emergamps=600 length=0.23917 units=m
New "Line.line20" bus1=19 bus2=21 phases=3 linecode=4c_70 Seasons=1 Ratings=[400,] normamps=400 emergamps=600 length=0.26856 units=m
New "Line.line22" bus1=21 bus2=23 phases=3 linecode=4c_70 Seasons=1 Ratings=[400,] normamps=400 emergamps=600 length=0.43727 units=m
New "Line.line24" bus1=23 bus2=25 phases=3 linecode=4c_70 Seasons=1 Ratings=[400,] normamps=400 emergamps=600 length=0.7955 units=m
New "Line.line27" bus1=25 bus2=28 phases=3 linecode=4c_70 Seasons=1 Ratings=[400,] normamps=400 emergamps=600 length=9.9686 units=m
New "Line.line31" bus1=28 bus2=32 phases=3 linecode=4c_70 Seasons=1 Ratings=[400,] normamps=400 emergamps=600 length=2.6538 units=m
New "Line.line36" bus1=32 bus2=37 phases=3 linecode=4c_70 Seasons=1 Ratings=[400,] normamps=400 emergamps=600 length=8.0244 units=m
New "Line.line42" bus1=37 bus2=43 phases=3 linecode=4c_185 Seasons=1 Ratings=[400,] normamps=400 emergamps=600 length=0.21675 units=m
New "Line.line48" bus1=43 bus2=49 phases=3 linecode=4c_185 Seasons=1 Ratings=[400,] normamps=400 emergamps=600 length=0.10436 units=m
New "Line.line54" bus1=49 bus2=55 phases=3 linecode=4c_185 Seasons=1 Ratings=[400,] normamps=400 emergamps=600 length=0.11625 units=m
New "Line.line60" bus1=55 bus2=61 phases=3 linecode=4c_185 Seasons=1 Ratings=[400,] normamps=400 emergamps=600 length=0.10028 units=m
New "Line.line67" bus1=61 bus2=68 phases=3 linecode=4c_185 Seasons=1 Ratings=[400,] normamps=400 emergamps=600 length=0.096042 units=m
New "Line.line75" bus1=68 bus2=76 phases=3 linecode=4c_185 Seasons=1 Ratings=[400,] normamps=400 emergamps=600 length=0.23551 units=m
New "Line.line80" bus1=76 bus2=81 phases=3 linecode=4c_185 Seasons=1 Ratings=[400,] normamps=400 emergamps=600 length=0.7469 units=m
New "Line.line85" bus1=81 bus2=86 phases=3 linecode=4c_185 Seasons=1 Ratings=[400,] normamps=400 emergamps=600 length=1.4388 units=m
New "Line.line89" bus1=86 bus2=90 phases=3 linecode=4c_185 Seasons=1 Ratings=[400,] normamps=400 emergamps=600 length=0.34251 units=m
New "Line.line92" bus1=90 bus2=93 phases=3 linecode=4c_185 Seasons=1 Ratings=[400,] normamps=400 emergamps=600 length=0.065307 units=m
New "Line.line95" bus1=93 bus2=96 phases=3 linecode=4c_185 Seasons=1 Ratings=[400,] normamps=400 emergamps=600 length=0.086052 units=m
New "Line.line98" bus1=96 bus2=99 phases=3 linecode=4c_185 Seasons=1 Ratings=[400,] normamps=400 emergamps=600 length=0.037216 units=m
New "Line.line101" bus1=99 bus2=102 phases=3 linecode=4c_185 Seasons=1 Ratings=[400,] normamps=400 emergamps=600 length=5.0819 units=m
New "Line.line105" bus1=102 bus2=106 phases=3 linecode=4c_185 Seasons=1 Ratings=[400,] normamps=400 emergamps=600 length=0.22108 units=m
New "Line.line108" bus1=106 bus2=109 phases=3 linecode=4c_185 Seasons=1 Ratings=[400,] normamps=400 emergamps=600 length=0.45085 units=m
New "Line.line111" bus1=109 bus2=112 phases=3 linecode=4c_185 Seasons=1 Ratings=[400,] normamps=400 emergamps=600 length=11.9766 units=m
New "Line.line114" bus1=112 bus2=115 phases=3 linecode=4c_185 Seasons=1 Ratings=[400,] normamps=400 emergamps=600 length=10.6613 units=m
New "Line.line118" bus1=115 bus2=119 phases=3 linecode=4c_185 Seasons=1 Ratings=[400,] normamps=400 emergamps=600 length=0.99464 units=m
New "Line.line123" bus1=119 bus2=124 phases=3 linecode=4c_185 Seasons=1 Ratings=[400,] normamps=400 emergamps=600 length=0.7248 units=m
New "Line.line128" bus1=124 bus2=129 phases=3 linecode=4c_185 Seasons=1 Ratings=[400,] normamps=400 emergamps=600 length=0.62512 units=m
New "Line.line134" bus1=129 bus2=135 phases=3 linecode=4c_185 Seasons=1 Ratings=[400,] normamps=400 emergamps=600 length=1.9203 units=m
New "Line.line140" bus1=135 bus2=141 phases=3 linecode=4c_185 Seasons=1 Ratings=[400,] normamps=400 emergamps=600 length=1.4127 units=m
New "Line.line146" bus1=141 bus2=147 phases=3 linecode=4c_185 Seasons=1 Ratings=[400,] normamps=400 emergamps=600 length=0.24053 units=m
New "Line.line153" bus1=147 bus2=154 phases=3 linecode=4c_185 Seasons=1 Ratings=[400,] normamps=400 emergamps=600 length=0.083096 units=m
New "Line.line160" bus1=154 bus2=161 phases=3 linecode=4c_185 Seasons=1 Ratings=[400,] normamps=400 emergamps=600 length=0.12256 units=m
New "Line.line168" bus1=161 bus2=169 phases=3 linecode=4c_185 Seasons=1 Ratings=[400,] normamps=400 emergamps=600 length=0.24958 units=m
New "Line.line41" bus1=37 bus2=42 phases=3 linecode=4c_70 Seasons=1 Ratings=[400,] normamps=400 emergamps=600 length=5.5684 units=m
New "Line.line47" bus1=42 bus2=48 phases=3 linecode=4c_70 Seasons=1 Ratings=[400,] normamps=400 emergamps=600 length=4.2078 units=m
New "Line.line53" bus1=48 bus2=54 phases=3 linecode=4c_70 Seasons=1 Ratings=[400,] normamps=400 emergamps=600 length=0.63949 units=m
New "Line.line59" bus1=54 bus2=60 phases=3 linecode=4c_70 Seasons=1 Ratings=[400,] normamps=400 emergamps=600 length=0.065368 units=m
New "Line.line66" bus1=60 bus2=67 phases=3 linecode=4c_70 Seasons=1 Ratings=[400,] normamps=400 emergamps=600 length=0.074 units=m
New "Line.line74" bus1=67 bus2=75 phases=3 linecode=4c_70 Seasons=1 Ratings=[400,] normamps=400 emergamps=600 length=0.17951 units=m
New "Line.line79" bus1=75 bus2=80 phases=3 linecode=4c_70 Seasons=1 Ratings=[400,] normamps=400 emergamps=600 length=0.10362 units=m
New "Line.line84" bus1=80 bus2=85 phases=3 linecode=4c_70 Seasons=1 Ratings=[400,] normamps=400 emergamps=600 length=0.11122 units=m
New "Line.line88" bus1=85 bus2=89 phases=3 linecode=4c_70 Seasons=1 Ratings=[400,] normamps=400 emergamps=600 length=0.1048 units=m
New "Line.line52" bus1=48 bus2=53 phases=3 linecode=4c_70 Seasons=1 Ratings=[400,] normamps=400 emergamps=600 length=0.60668 units=m
New "Line.line58" bus1=53 bus2=59 phases=3 linecode=4c_70 Seasons=1 Ratings=[400,] normamps=400 emergamps=600 length=2.7481 units=m
New "Line.line65" bus1=59 bus2=66 phases=3 linecode=2c_16 Seasons=1 Ratings=[400,] normamps=400 emergamps=600 length=8.2583 units=m
New "Line.line73" bus1=66 bus2=74 phases=3 linecode=2c_16 Seasons=1 Ratings=[400,] normamps=400 emergamps=600 length=4.0366 units=m
New "Line.line72" bus1=66 bus2=73 phases=3 linecode=2c_16 Seasons=1 Ratings=[400,] normamps=400 emergamps=600 length=4.0366 units=m
New "Line.line64" bus1=59 bus2=65 phases=3 linecode=4c_70 Seasons=1 Ratings=[400,] normamps=400 emergamps=600 length=0.55868 units=m
New "Line.line71" bus1=65 bus2=72 phases=3 linecode=4c_70 Seasons=1 Ratings=[400,] normamps=400 emergamps=600 length=6.6006 units=m
New "Line.line78" bus1=72 bus2=79 phases=3 linecode=4c_70 Seasons=1 Ratings=[400,] normamps=400 emergamps=600 length=2.3008 units=m
New "Line.line83" bus1=79 bus2=84 phases=3 linecode=4c_70 Seasons=1 Ratings=[400,] normamps=400 emergamps=600 length=0.50211 units=m
New "Line.line87" bus1=84 bus2=88 phases=3 linecode=4c_70 Seasons=1 Ratings=[400,] normamps=400 emergamps=600 length=1.0182 units=m
New "Line.line91" bus1=88 bus2=92 phases=3 linecode=4c_70 Seasons=1 Ratings=[400,] normamps=400 emergamps=600 length=0.96021 units=m
New "Line.line94" bus1=92 bus2=95 phases=3 linecode=4c_70 Seasons=1 Ratings=[400,] normamps=400 emergamps=600 length=0.55811 units=m
New "Line.line97" bus1=95 bus2=98 phases=3 linecode=4c_70 Seasons=1 Ratings=[400,] normamps=400 emergamps=600 length=0.36859 units=m
New "Line.line100" bus1=98 bus2=101 phases=3 linecode=4c_70 Seasons=1 Ratings=[400,] normamps=400 emergamps=600 length=0.50892 units=m
New "Line.line104" bus1=101 bus2=105 phases=3 linecode=4c_70 Seasons=1 Ratings=[400,] normamps=400 emergamps=600 length=0.33602 units=m
New "Line.line107" bus1=105 bus2=108 phases=3 linecode=4c_70 Seasons=1 Ratings=[400,] normamps=400 emergamps=600 length=0.19054 units=m
New "Line.line110" bus1=108 bus2=111 phases=3 linecode=4c_70 Seasons=1 Ratings=[400,] normamps=400 emergamps=600 length=7.5182 units=m
New "Line.line113" bus1=111 bus2=114 phases=3 linecode=4c_70 Seasons=1 Ratings=[400,] normamps=400 emergamps=600 length=0.75316 units=m
New "Line.line117" bus1=114 bus2=118 phases=3 linecode=4c_.1 Seasons=1 Ratings=[400,] normamps=400 emergamps=600 length=3.6556 units=m
New "Line.line122" bus1=118 bus2=123 phases=3 linecode=4c_.1 Seasons=1 Ratings=[400,] normamps=400 emergamps=600 length=6.5924 units=m
New "Line.line127" bus1=123 bus2=128 phases=3 linecode=4c_.1 Seasons=1 Ratings=[400,] normamps=400 emergamps=600 length=2.9646 units=m
New "Line.line133" bus1=128 bus2=134 phases=3 linecode=4c_.1 Seasons=1 Ratings=[400,] normamps=400 emergamps=600 length=0.88205 units=m
New "Line.line139" bus1=134 bus2=140 phases=3 linecode=4c_.1 Seasons=1 Ratings=[400,] normamps=400 emergamps=600 length=0.99566 units=m
New "Line.line145" bus1=140 bus2=146 phases=3 linecode=4c_.1 Seasons=1 Ratings=[400,] normamps=400 emergamps=600 length=0.9364 units=m
New "Line.line152" bus1=146 bus2=153 phases=3 linecode=4c_.1 Seasons=1 Ratings=[400,] normamps=400 emergamps=600 length=1.0926 units=m
New "Line.line159" bus1=153 bus2=160 phases=3 linecode=4c_.1 Seasons=1 Ratings=[400,] normamps=400 emergamps=600 length=0.31439 units=m
New "Line.line167" bus1=160 bus2=168 phases=3 linecode=4c_.1 Seasons=1 Ratings=[400,] normamps=400 emergamps=600 length=1.7861 units=m
New "Line.line176" bus1=168 bus2=177 phases=3 linecode=4c_.1 Seasons=1 Ratings=[400,] normamps=400 emergamps=600 length=1.0088 units=m
New "Line.line185" bus1=177 bus2=186 phases=3 linecode=4c_.1 Seasons=1 Ratings=[400,] normamps=400 emergamps=600 length=0.74886 units=m
New "Line.line194" bus1=186 bus2=195 phases=3 linecode=4c_.1 Seasons=1 Ratings=[400,] normamps=400 emergamps=600 length=0.67326 units=m
New "Line.line204" bus1=195 bus2=205 phases=3 linecode=4c_.1 Seasons=1 Ratings=[400,] normamps=400 emergamps=600 length=0.83638 units=m
New "Line.line214" bus1=205 bus2=215 phases=3 linecode=4c_.1 Seasons=1 Ratings=[400,] normamps=400 emergamps=600 length=1.5434 units=m
New "Line.line223" bus1=215 bus2=224 phases=3 linecode=4c_.1 Seasons=1 Ratings=[400,] normamps=400 emergamps=600 length=1.3456 units=m
New "Line.line231" bus1=224 bus2=232 phases=3 linecode=4c_.1 Seasons=1 Ratings=[400,] normamps=400 emergamps=600 length=0.91534 units=m
New "Line.line239" bus1=232 bus2=240 phases=3 linecode=4c_.1 Seasons=1 Ratings=[400,] normamps=400 emergamps=600 length=0.6013 units=m
New "Line.line246" bus1=240 bus2=247 phases=3 linecode=4c_.1 Seasons=1 Ratings=[400,] normamps=400 emergamps=600 length=1.2941 units=m
New "Line.line255" bus1=247 bus2=256 phases=3 linecode=4c_.1 Seasons=1 Ratings=[400,] normamps=400 emergamps=600 length=0.85678 units=m
New "Line.line262" bus1=256 bus2=263 phases=3 linecode=4c_.1 Seasons=1 Ratings=[400,] normamps=400 emergamps=600 length=3.2128 units=m
New "Line.line271" bus1=263 bus2=272 phases=3 linecode=4c_.1 Seasons=1 Ratings=[400,] normamps=400 emergamps=600 length=1.0792 units=m
New "Line.line279" bus1=272 bus2=280 phases=3 linecode=4c_.1 Seasons=1 Ratings=[400,] normamps=400 emergamps=600 length=3.9121 units=m
New "Line.line287" bus1=280 bus2=288 phases=3 linecode=4c_.1 Seasons=1 Ratings=[400,] normamps=400 emergamps=600 length=0.91306 units=m
New "Line.line296" bus1=288 bus2=297 phases=3 linecode=4c_.1 Seasons=1 Ratings=[400,] normamps=400 emergamps=600 length=3.8266 units=m
New "Line.line303" bus1=297 bus2=304 phases=3 linecode=4c_.1 Seasons=1 Ratings=[400,] normamps=400 emergamps=600 length=0.84468 units=m
New "Line.line310" bus1=304 bus2=311 phases=3 linecode=4c_.1 Seasons=1 Ratings=[400,] normamps=400 emergamps=600 length=0.28067 units=m
New "Line.line318" bus1=311 bus2=319 phases=3 linecode=4c_.1 Seasons=1 Ratings=[400,] normamps=400 emergamps=600 length=0.14649 units=m
New "Line.line325" bus1=319 bus2=326 phases=3 linecode=4c_.1 Seasons=1 Ratings=[400,] normamps=400 emergamps=600 length=0.1254 units=m
New "Line.line332" bus1=326 bus2=333 phases=3 linecode=4c_.1 Seasons=1 Ratings=[400,] normamps=400 emergamps=600 length=0.14262 units=m
New "Line.line339" bus1=333 bus2=340 phases=3 linecode=4c_.1 Seasons=1 Ratings=[400,] normamps=400 emergamps=600 length=0.11236 units=m
New "Line.line346" bus1=340 bus2=347 phases=3 linecode=4c_.1 Seasons=1 Ratings=[400,] normamps=400 emergamps=600 length=0.094202 units=m
New "Line.line352" bus1=347 bus2=353 phases=3 linecode=4c_.1 Seasons=1 Ratings=[400,] normamps=400 emergamps=600 length=0.085 units=m
New "Line.line357" bus1=353 bus2=358 phases=3 linecode=4c_.1 Seasons=1 Ratings=[400,] normamps=400 emergamps=600 length=0.070349 units=m
New "Line.line362" bus1=358 bus2=363 phases=3 linecode=4c_.1 Seasons=1 Ratings=[400,] normamps=400 emergamps=600 length=0.081609 units=m
New "Line.line367" bus1=363 bus2=368 phases=3 linecode=4c_.1 Seasons=1 Ratings=[400,] normamps=400 emergamps=600 length=0.089694 units=m
New "Line.line372" bus1=368 bus2=373 phases=3 linecode=4c_.1 Seasons=1 Ratings=[400,] normamps=400 emergamps=600 length=0.48898 units=m
New "Line.line378" bus1=373 bus2=379 phases=3 linecode=2c_16 Seasons=1 Ratings=[400,] normamps=400 emergamps=600 length=1.4115 units=m
New "Line.line385" bus1=379 bus2=386 phases=3 linecode=2c_16 Seasons=1 Ratings=[400,] normamps=400 emergamps=600 length=1.4561 units=m
New "Line.line392" bus1=386 bus2=393 phases=3 linecode=2c_16 Seasons=1 Ratings=[400,] normamps=400 emergamps=600 length=7.8335 units=m
New "Line.line398" bus1=393 bus2=399 phases=3 linecode=2c_16 Seasons=1 Ratings=[400,] normamps=400 emergamps=600 length=0.5688 units=m
New "Line.line404" bus1=399 bus2=405 phases=3 linecode=2c_16 Seasons=1 Ratings=[400,] normamps=400 emergamps=600 length=0.24807 units=m
New "Line.line411" bus1=405 bus2=412 phases=3 linecode=2c_16 Seasons=1 Ratings=[400,] normamps=400 emergamps=600 length=0.16706 units=m
New "Line.line417" bus1=412 bus2=418 phases=3 linecode=2c_16 Seasons=1 Ratings=[400,] normamps=400 emergamps=600 length=0.27954 units=m
New "Line.line423" bus1=418 bus2=424 phases=3 linecode=2c_16 Seasons=1 Ratings=[400,] normamps=400 emergamps=600 length=3.1944 units=m
New "Line.line430" bus1=424 bus2=431 phases=3 linecode=2c_16 Seasons=1 Ratings=[400,] normamps=400 emergamps=600 length=1.1331 units=m
New "Line.line437" bus1=431 bus2=438 phases=3 linecode=2c_16 Seasons=1 Ratings=[400,] normamps=400 emergamps=600 length=0.384 units=m
New "Line.line444" bus1=438 bus2=445 phases=3 linecode=2c_16 Seasons=1 Ratings=[400,] normamps=400 emergamps=600 length=0.67858 units=m
New "Line.line451" bus1=445 bus2=452 phases=3 linecode=2c_16 Seasons=1 Ratings=[400,] normamps=400 emergamps=600 length=0.59366 units=m
New "Line.line458" bus1=452 bus2=459 phases=3 linecode=2c_16 Seasons=1 Ratings=[400,] normamps=400 emergamps=600 length=0.67064 units=m
New "Line.line465" bus1=459 bus2=466 phases=3 linecode=2c_16 Seasons=1 Ratings=[400,] normamps=400 emergamps=600 length=0.63421 units=m
New "Line.line473" bus1=466 bus2=474 phases=3 linecode=2c_16 Seasons=1 Ratings=[400,] normamps=400 emergamps=600 length=3.201 units=m
New "Line.line480" bus1=474 bus2=481 phases=3 linecode=2c_16 Seasons=1 Ratings=[400,] normamps=400 emergamps=600 length=0.18984 units=m
New "Line.line488" bus1=481 bus2=489 phases=3 linecode=2c_16 Seasons=1 Ratings=[400,] normamps=400 emergamps=600 length=0.1713 units=m
New "Line.line497" bus1=489 bus2=498 phases=3 linecode=2c_16 Seasons=1 Ratings=[400,] normamps=400 emergamps=600 length=0.23283 units=m
New "Line.line506" bus1=498 bus2=507 phases=3 linecode=2c_16 Seasons=1 Ratings=[400,] normamps=400 emergamps=600 length=0.30564 units=m
New "Line.line384" bus1=379 bus2=385 phases=3 linecode=2c_16 Seasons=1 Ratings=[400,] normamps=400 emergamps=600 length=8.6668 units=m
New "Line.line391" bus1=385 bus2=392 phases=3 linecode=2c_16 Seasons=1 Ratings=[400,] normamps=400 emergamps=600 length=3.1675 units=m
New "Line.line397" bus1=392 bus2=398 phases=3 linecode=2c_16 Seasons=1 Ratings=[400,] normamps=400 emergamps=600 length=0.32241 units=m
New "Line.line403" bus1=398 bus2=404 phases=3 linecode=2c_16 Seasons=1 Ratings=[400,] normamps=400 emergamps=600 length=0.225 units=m
New "Line.line410" bus1=404 bus2=411 phases=3 linecode=2c_16 Seasons=1 Ratings=[400,] normamps=400 emergamps=600 length=0.23308 units=m
New "Line.line416" bus1=411 bus2=417 phases=3 linecode=2c_16 Seasons=1 Ratings=[400,] normamps=400 emergamps=600 length=0.9788 units=m
New "Line.line422" bus1=417 bus2=423 phases=3 linecode=2c_16 Seasons=1 Ratings=[400,] normamps=400 emergamps=600 length=0.239 units=m
New "Line.line429" bus1=423 bus2=430 phases=3 linecode=2c_16 Seasons=1 Ratings=[400,] normamps=400 emergamps=600 length=0.22798 units=m
New "Line.line436" bus1=430 bus2=437 phases=3 linecode=2c_16 Seasons=1 Ratings=[400,] normamps=400 emergamps=600 length=0.22674 units=m
New "Line.line443" bus1=437 bus2=444 phases=3 linecode=2c_16 Seasons=1 Ratings=[400,] normamps=400 emergamps=600 length=0.2601 units=m
New "Line.line450" bus1=444 bus2=451 phases=3 linecode=2c_16 Seasons=1 Ratings=[400,] normamps=400 emergamps=600 length=0.89824 units=m
New "Line.line457" bus1=451 bus2=458 phases=3 linecode=2c_16 Seasons=1 Ratings=[400,] normamps=400 emergamps=600 length=4.3773 units=m
New "Line.line377" bus1=373 bus2=378 phases=3 linecode=4c_.1 Seasons=1 Ratings=[400,] normamps=400 emergamps=600 length=3.6848 units=m
New "Line.line383" bus1=378 bus2=384 phases=3 linecode=4c_.1 Seasons=1 Ratings=[400,] normamps=400 emergamps=600 length=3.5292 units=m
New "Line.line390" bus1=384 bus2=391 phases=3 linecode=4c_.1 Seasons=1 Ratings=[400,] normamps=400 emergamps=600 length=0.15711 units=m
New "Line.line396" bus1=391 bus2=397 phases=3 linecode=4c_.1 Seasons=1 Ratings=[400,] normamps=400 emergamps=600 length=2.8793 units=m
New "Line.line402" bus1=397 bus2=403 phases=3 linecode=4c_.1 Seasons=1 Ratings=[400,] normamps=400 emergamps=600 length=1.3891 units=m
New "Line.line409" bus1=403 bus2=410 phases=3 linecode=4c_.1 Seasons=1 Ratings=[400,] normamps=400 emergamps=600 length=0.3791 units=m
New "Line.line415" bus1=410 bus2=416 phases=3 linecode=4c_.1 Seasons=1 Ratings=[400,] normamps=400 emergamps=600 length=0.094921 units=m
New "Line.line421" bus1=416 bus2=422 phases=3 linecode=4c_.1 Seasons=1 Ratings=[400,] normamps=400 emergamps=600 length=0.066573 units=m
New "Line.line428" bus1=422 bus2=429 phases=3 linecode=4c_.1 Seasons=1 Ratings=[400,] normamps=400 emergamps=600 length=0.082873 units=m
New "Line.line435" bus1=429 bus2=436 phases=3 linecode=4c_.1 Seasons=1 Ratings=[400,] normamps=400 emergamps=600 length=0.071344 units=m
New "Line.line442" bus1=436 bus2=443 phases=3 linecode=4c_.1 Seasons=1 Ratings=[400,] normamps=400 emergamps=600 length=0.078 units=m
New "Line.line449" bus1=443 bus2=450 phases=3 linecode=4c_.1 Seasons=1 Ratings=[400,] normamps=400 emergamps=600 length=0.079246 units=m
New "Line.line456" bus1=450 bus2=457 phases=3 linecode=4c_.1 Seasons=1 Ratings=[400,] normamps=400 emergamps=600 length=0.054231 units=m
New "Line.line464" bus1=457 bus2=465 phases=3 linecode=4c_.1 Seasons=1 Ratings=[400,] normamps=400 emergamps=600 length=0.040311 units=m
New "Line.line472" bus1=465 bus2=473 phases=3 linecode=4c_.1 Seasons=1 Ratings=[400,] normamps=400 emergamps=600 length=0.049497 units=m
New "Line.line479" bus1=473 bus2=480 phases=3 linecode=4c_.1 Seasons=1 Ratings=[400,] normamps=400 emergamps=600 length=0.063953 units=m
New "Line.line487" bus1=480 bus2=488 phases=3 linecode=4c_.1 Seasons=1 Ratings=[400,] normamps=400 emergamps=600 length=0.11163 units=m
New "Line.line496" bus1=488 bus2=497 phases=3 linecode=4c_.1 Seasons=1 Ratings=[400,] normamps=400 emergamps=600 length=0.13972 units=m
New "Line.line505" bus1=497 bus2=506 phases=3 linecode=4c_.1 Seasons=1 Ratings=[400,] normamps=400 emergamps=600 length=0.096167 units=m
New "Line.line514" bus1=506 bus2=515 phases=3 linecode=4c_.1 Seasons=1 Ratings=[400,] normamps=400 emergamps=600 length=0.085492 units=m
New "Line.line523" bus1=515 bus2=524 phases=3 linecode=4c_.1 Seasons=1 Ratings=[400,] normamps=400 emergamps=600 length=0.066573 units=m
New "Line.line531" bus1=524 bus2=532 phases=3 linecode=4c_.1 Seasons=1 Ratings=[400,] normamps=400 emergamps=600 length=0.060803 units=m
New "Line.line540" bus1=532 bus2=541 phases=3 linecode=4c_.1 Seasons=1 Ratings=[400,] normamps=400 emergamps=600 length=0.065513 units=m
New "Line.line548" bus1=541 bus2=549 phases=3 linecode=4c_.1 Seasons=1 Ratings=[400,] normamps=400 emergamps=600 length=0.086145 units=m
New "Line.line557" bus1=549 bus2=558 phases=3 linecode=4c_.1 Seasons=1 Ratings=[400,] normamps=400 emergamps=600 length=0.061612 units=m
New "Line.line565" bus1=558 bus2=566 phases=3 linecode=4c_.1 Seasons=1 Ratings=[400,] normamps=400 emergamps=600 length=0.12021 units=m
New "Line.line408" bus1=403 bus2=409 phases=3 linecode=4c_.1 Seasons=1 Ratings=[400,] normamps=400 emergamps=600 length=4.1907 units=m
New "Line.line414" bus1=409 bus2=415 phases=3 linecode=4c_.1 Seasons=1 Ratings=[400,] normamps=400 emergamps=600 length=5.9686 units=m
New "Line.line420" bus1=415 bus2=421 phases=3 linecode=4c_.1 Seasons=1 Ratings=[400,] normamps=400 emergamps=600 length=1.249 units=m
New "Line.line427" bus1=421 bus2=428 phases=3 linecode=4c_.1 Seasons=1 Ratings=[400,] normamps=400 emergamps=600 length=0.31923 units=m
New "Line.line434" bus1=428 bus2=435 phases=3 linecode=4c_.1 Seasons=1 Ratings=[400,] normamps=400 emergamps=600 length=0.16724 units=m
New "Line.line441" bus1=435 bus2=442 phases=3 linecode=4c_.1 Seasons=1 Ratings=[400,] normamps=400 emergamps=600 length=0.13864 units=m
New "Line.line448" bus1=442 bus2=449 phases=3 linecode=4c_.1 Seasons=1 Ratings=[400,] normamps=400 emergamps=600 length=0.11236 units=m
New "Line.line455" bus1=449 bus2=456 phases=3 linecode=4c_.1 Seasons=1 Ratings=[400,] normamps=400 emergamps=600 length=0.17175 units=m
New "Line.line463" bus1=456 bus2=464 phases=3 linecode=4c_.1 Seasons=1 Ratings=[400,] normamps=400 emergamps=600 length=0.15483 units=m
New "Line.line471" bus1=464 bus2=472 phases=3 linecode=4c_.1 Seasons=1 Ratings=[400,] normamps=400 emergamps=600 length=0.14736 units=m
New "Line.line478" bus1=472 bus2=479 phases=3 linecode=4c_.1 Seasons=1 Ratings=[400,] normamps=400 emergamps=600 length=0.16601 units=m
New "Line.line486" bus1=479 bus2=487 phases=3 linecode=4c_.1 Seasons=1 Ratings=[400,] normamps=400 emergamps=600 length=0.17536 units=m
New "Line.line495" bus1=487 bus2=496 phases=3 linecode=4c_.1 Seasons=1 Ratings=[400,] normamps=400 emergamps=600 length=0.38342 units=m
New "Line.line504" bus1=496 bus2=505 phases=3 linecode=4c_.1 Seasons=1 Ratings=[400,] normamps=400 emergamps=600 length=8.6961 units=m
New "Line.line513" bus1=505 bus2=514 phases=3 linecode=4c_.1 Seasons=1 Ratings=[400,] normamps=400 emergamps=600 length=1.3369 units=m
New "Line.line522" bus1=514 bus2=523 phases=3 linecode=4c_.1 Seasons=1 Ratings=[400,] normamps=400 emergamps=600 length=0.72122 units=m
New "Line.line530" bus1=523 bus2=531 phases=3 linecode=4c_.1 Seasons=1 Ratings=[400,] normamps=400 emergamps=600 length=0.10771 units=m
New "Line.line539" bus1=531 bus2=540 phases=3 linecode=4c_.1 Seasons=1 Ratings=[400,] normamps=400 emergamps=600 length=0.082219 units=m
New "Line.line547" bus1=540 bus2=548 phases=3 linecode=4c_.1 Seasons=1 Ratings=[400,] normamps=400 emergamps=600 length=0.076896 units=m
New "Line.line556" bus1=548 bus2=557 phases=3 linecode=4c_.1 Seasons=1 Ratings=[400,] normamps=400 emergamps=600 length=0.082 units=m
New "Line.line564" bus1=557 bus2=565 phases=3 linecode=4c_.1 Seasons=1 Ratings=[400,] normamps=400 emergamps=600 length=0.07256 units=m
New "Line.line571" bus1=565 bus2=572 phases=3 linecode=4c_.1 Seasons=1 Ratings=[400,] normamps=400 emergamps=600 length=0.074216 units=m
New "Line.line577" bus1=572 bus2=578 phases=3 linecode=4c_.1 Seasons=1 Ratings=[400,] normamps=400 emergamps=600 length=0.38305 units=m
New "Line.line585" bus1=578 bus2=586 phases=3 linecode=4c_.1 Seasons=1 Ratings=[400,] normamps=400 emergamps=600 length=0.82623 units=m
New "Line.line593" bus1=586 bus2=594 phases=3 linecode=4c_.1 Seasons=1 Ratings=[400,] normamps=400 emergamps=600 length=3.9483 units=m
New "Line.line602" bus1=594 bus2=603 phases=3 linecode=4c_.1 Seasons=1 Ratings=[400,] normamps=400 emergamps=600 length=4.6424 units=m
New "Line.line614" bus1=603 bus2=615 phases=3 linecode=4c_.1 Seasons=1 Ratings=[400,] normamps=400 emergamps=600 length=4.4466 units=m
New "Line.line624" bus1=615 bus2=625 phases=3 linecode=4c_.1 Seasons=1 Ratings=[400,] normamps=400 emergamps=600 length=1.2511 units=m
New "Line.line631" bus1=625 bus2=632 phases=3 linecode=4c_.1 Seasons=1 Ratings=[400,] normamps=400 emergamps=600 length=0.28784 units=m
New "Line.line637" bus1=632 bus2=638 phases=3 linecode=4c_.1 Seasons=1 Ratings=[400,] normamps=400 emergamps=600 length=0.14284 units=m
New "Line.line643" bus1=638 bus2=644 phases=3 linecode=4c_.1 Seasons=1 Ratings=[400,] normamps=400 emergamps=600 length=0.15697 units=m
New "Line.line648" bus1=644 bus2=649 phases=3 linecode=4c_.1 Seasons=1 Ratings=[400,] normamps=400 emergamps=600 length=0.18112 units=m
...
