Test_Systems/European_LV_Test_Feeder-G/lvtest_Power_seq_kVA.txt

SYMMETRICAL COMPONENT POWERS BY CIRCUIT ELEMENT (first 3 phases)                                     Excess Power

Element                      Term    P1(kW)   Q1(kvar)       P2         Q2      P0      Q0       P_Norm      Q_Norm     P_Emerg    Q_Emerg

"Vsource.SOURCE"              1      -59.0      -19.4        0.0        0.0    -0.0     0.0
"Vsource.SOURCE"              2        0.0        0.0        0.0        0.0     0.0     0.0
"Line.LINE1"                  1       59.0       19.3       -0.0       -0.0    -0.0    -0.0        0.0        0.0        0.0        0.0
"Line.LINE1"                  2      -59.0      -19.3        0.0        0.0     0.0     0.0
"Line.LINE2"                  1       59.0       19.3       -0.0       -0.0    -0.0    -0.0        0.0        0.0        0.0        0.0
"Line.LINE2"                  2      -59.0      -19.3        0.0        0.0     0.0     0.0
"Line.LINE3"                  1       59.0       19.3       -0.0       -0.0    -0.0    -0.0        0.0        0.0        0.0        0.0
"Line.LINE3"                  2      -59.0      -19.3        0.0        0.0     0.0     0.0
"Line.LINE4"                  1       59.0       19.3       -0.0       -0.0    -0.0    -0.0        0.0        0.0        0.0        0.0
"Line.LINE4"                  2      -59.0      -19.3        0.0        0.0     0.0     0.0
"Line.LINE5"                  1       59.0       19.3       -0.0       -0.0    -0.0    -0.0        0.0        0.0        0.0        0.0
"Line.LINE5"                  2      -59.0      -19.3        0.0        0.0     0.0     0.0
"Line.LINE6"                  1       59.0       19.3       -0.0       -0.0    -0.0    -0.0        0.0        0.0        0.0        0.0
"Line.LINE6"                  2      -58.9      -19.2        0.0        0.0     0.0     0.0
"Line.LINE7"                  1       58.9       19.2       -0.0       -0.0    -0.0    -0.0        0.0        0.0        0.0        0.0
"Line.LINE7"                  2      -58.9      -19.2        0.0        0.0     0.0     0.0
"Line.LINE8"                  1       58.9       19.2       -0.0       -0.0    -0.0    -0.0        0.0        0.0        0.0        0.0
"Line.LINE8"                  2      -58.9      -19.2        0.0        0.0     0.0     0.0
"Line.LINE9"                  1       58.9       19.2       -0.0       -0.0    -0.0    -0.0        0.0        0.0        0.0        0.0
"Line.LINE9"                  2      -58.9      -19.2        0.0        0.0     0.0     0.0
"Line.LINE10"                 1       58.9       19.2       -0.0       -0.0    -0.0    -0.0        0.0        0.0        0.0        0.0
"Line.LINE10"                 2      -58.9      -19.2        0.0        0.0     0.0     0.0
"Line.LINE11"                 1       58.9       19.2       -0.0       -0.0    -0.0    -0.0        0.0        0.0        0.0        0.0
"Line.LINE11"                 2      -58.9      -19.2        0.0        0.0     0.0     0.0
"Line.LINE12"                 1       58.9       19.2       -0.0       -0.0    -0.0    -0.0        0.0        0.0        0.0        0.0
"Line.LINE12"                 2      -58.9      -19.2        0.0        0.0     0.0     0.0
"Line.LINE13"                 1       58.9       19.2       -0.0       -0.0    -0.0    -0.0        0.0        0.0        0.0        0.0
"Line.LINE13"                 2      -58.9      -19.2        0.0        0.0     0.0     0.0
"Line.LINE14"                 1       58.9       19.2       -0.0       -0.0    -0.0    -0.0        0.0        0.0        0.0        0.0
"Line.LINE14"                 2      -58.8      -19.2        0.0        0.0     0.0     0.0
"Line.LINE16"                 1       58.8       19.2       -0.0       -0.0    -0.0    -0.0        0.0        0.0        0.0        0.0
"Line.LINE16"                 2      -58.8      -19.2        0.0        0.0     0.0     0.0
"Line.LINE18"                 1       58.8       19.2       -0.0       -0.0    -0.0    -0.0        0.0        0.0        0.0        0.0
"Line.LINE18"                 2      -58.8      -19.2        0.0        0.0     0.0     0.0
"Line.LINE20"                 1       58.8       19.2       -0.0       -0.0    -0.0    -0.0        0.0        0.0        0.0        0.0
"Line.LINE20"                 2      -58.8      -19.2        0.0        0.0     0.0     0.0
"Line.LINE22"                 1       58.8       19.2       -0.0       -0.0    -0.0    -0.0        0.0        0.0        0.0        0.0
"Line.LINE22"                 2      -58.8      -19.2        0.0        0.0     0.0     0.0
"Line.LINE24"                 1       58.8       19.2       -0.0       -0.0    -0.0    -0.0        0.0        0.0        0.0        0.0
"Line.LINE24"                 2      -58.8      -19.2        0.0        0.0     0.0     0.0
"Line.LINE27"                 1       56.6       18.5       -0.0       -0.0    -0.0    -0.0        0.0        0.0        0.0        0.0
"Line.LINE27"                 2      -56.5      -18.5        0.0        0.0     0.0     0.0
"Line.LINE31"                 1       56.5       18.5       -0.0       -0.0    -0.0    -0.0        0.0        0.0        0.0        0.0
"Line.LINE31"                 2      -56.5      -18.5        0.0        0.0     0.0     0.0
"Line.LINE36"                 1       54.4       17.8       -0.0       -0.0    -0.0     0.0        0.0        0.0        0.0        0.0
"Line.LINE36"                 2      -54.3      -17.8        0.0        0.0     0.0    -0.0
"Line.LINE42"                 1        0.0        0.0        0.0       -0.0    -0.0     0.0        0.0        0.0        0.0        0.0
"Line.LINE42"                 2       -0.0       -0.0       -0.0        0.0     0.0    -0.0
"Line.LINE48"                 1        0.0        0.0        0.0       -0.0    -0.0     0.0        0.0        0.0        0.0        0.0
"Line.LINE48"                 2       -0.0       -0.0       -0.0        0.0     0.0    -0.0
"Line.LINE54"                 1        0.0        0.0        0.0       -0.0    -0.0     0.0        0.0        0.0        0.0        0.0
"Line.LINE54"                 2       -0.0       -0.0       -0.0        0.0     0.0    -0.0
"Line.LINE60"                 1        0.0        0.0       -0.0       -0.0     0.0     0.0        0.0        0.0        0.0        0.0
"Line.LINE60"                 2       -0.0       -0.0        0.0        0.0    -0.0    -0.0
"Line.LINE67"                 1        0.0        0.0       -0.0       -0.0    -0.0     0.0        0.0        0.0        0.0        0.0
"Line.LINE67"                 2       -0.0       -0.0        0.0        0.0     0.0    -0.0
"Line.LINE75"                 1        0.0        0.0       -0.0       -0.0    -0.0     0.0        0.0        0.0        0.0        0.0
"Line.LINE75"                 2       -0.0       -0.0        0.0        0.0     0.0    -0.0
"Line.LINE80"                 1        0.0        0.0       -0.0       -0.0    -0.0     0.0        0.0        0.0        0.0        0.0
"Line.LINE80"                 2       -0.0       -0.0        0.0        0.0     0.0    -0.0
"Line.LINE85"                 1        0.0        0.0       -0.0       -0.0    -0.0     0.0        0.0        0.0        0.0        0.0
"Line.LINE85"                 2       -0.0       -0.0        0.0        0.0     0.0    -0.0
"Line.LINE89"                 1        0.0        0.0       -0.0       -0.0    -0.0     0.0        0.0        0.0        0.0        0.0
"Line.LINE89"                 2       -0.0       -0.0        0.0        0.0     0.0    -0.0
"Line.LINE92"                 1        0.0        0.0       -0.0       -0.0    -0.0     0.0        0.0        0.0        0.0        0.0
"Line.LINE92"                 2       -0.0       -0.0        0.0        0.0     0.0    -0.0
"Line.LINE95"                 1        0.0        0.0       -0.0       -0.0     0.0     0.0        0.0        0.0        0.0        0.0
"Line.LINE95"                 2       -0.0       -0.0        0.0        0.0    -0.0    -0.0
"Line.LINE98"                 1        0.0        0.0        0.0       -0.0    -0.0     0.0        0.0        0.0        0.0        0.0
"Line.LINE98"                 2       -0.0       -0.0       -0.0        0.0     0.0    -0.0
"Line.LINE101"                1        0.0       -0.0        0.0       -0.0     0.0     0.0        0.0        0.0        0.0        0.0
"Line.LINE101"                2       -0.0        0.0       -0.0        0.0    -0.0    -0.0
"Line.LINE105"                1        0.0       -0.0        0.0       -0.0     0.0     0.0        0.0        0.0        0.0        0.0
"Line.LINE105"                2       -0.0        0.0       -0.0        0.0    -0.0    -0.0
"Line.LINE108"                1        0.0       -0.0        0.0       -0.0     0.0     0.0        0.0        0.0        0.0        0.0
"Line.LINE108"                2       -0.0        0.0       -0.0        0.0    -0.0    -0.0
"Line.LINE111"                1        0.0       -0.0        0.0       -0.0     0.0     0.0        0.0        0.0        0.0        0.0
"Line.LINE111"                2       -0.0        0.0       -0.0        0.0    -0.0    -0.0
"Line.LINE114"                1        0.0       -0.0        0.0       -0.0     0.0     0.0        0.0        0.0        0.0        0.0
"Line.LINE114"                2       -0.0        0.0       -0.0        0.0    -0.0    -0.0
"Line.LINE118"                1        0.0       -0.0        0.0       -0.0     0.0     0.0        0.0        0.0        0.0        0.0
"Line.LINE118"                2       -0.0        0.0       -0.0        0.0    -0.0    -0.0
"Line.LINE123"                1        0.0       -0.0        0.0       -0.0     0.0     0.0        0.0        0.0        0.0        0.0
"Line.LINE123"                2       -0.0        0.0       -0.0        0.0    -0.0    -0.0
"Line.LINE128"                1        0.0       -0.0        0.0       -0.0     0.0     0.0        0.0        0.0        0.0        0.0
"Line.LINE128"                2       -0.0        0.0       -0.0        0.0    -0.0    -0.0
"Line.LINE134"                1        0.0       -0.0        0.0       -0.0     0.0     0.0        0.0        0.0        0.0        0.0
"Line.LINE134"                2       -0.0        0.0       -0.0        0.0    -0.0    -0.0
"Line.LINE140"                1        0.0       -0.0        0.0       -0.0     0.0     0.0        0.0        0.0        0.0        0.0
"Line.LINE140"                2       -0.0        0.0       -0.0        0.0    -0.0    -0.0
"Line.LINE146"                1        0.0       -0.0        0.0       -0.0     0.0     0.0        0.0        0.0        0.0        0.0
"Line.LINE146"                2       -0.0        0.0       -0.0        0.0    -0.0    -0.0
"Line.LINE153"                1        0.0       -0.0       -0.0       -0.0    -0.0     0.0        0.0        0.0        0.0        0.0
"Line.LINE153"                2       -0.0        0.0        0.0        0.0     0.0    -0.0
"Line.LINE160"                1        0.0        0.0        0.0       -0.0    -0.0    -0.0        0.0        0.0        0.0        0.0
"Line.LINE160"                2       -0.0       -0.0       -0.0        0.0     0.0     0.0
"Line.LINE168"                1        0.0        0.0       -0.0        0.0    -0.0    -0.0        0.0        0.0        0.0        0.0
"Line.LINE168"                2       -0.0       -0.0        0.0       -0.0     0.0     0.0
"Line.LINE41"                 1       54.3       17.8       -0.0       -0.0    -0.0     0.0        0.0        0.0        0.0        0.0
"Line.LINE41"                 2      -54.3      -17.8        0.0        0.0     0.0    -0.0
"Line.LINE47"                 1       54.3       17.8       -0.0       -0.0    -0.0     0.0        0.0        0.0        0.0        0.0
"Line.LINE47"                 2      -54.2      -17.8        0.0        0.0     0.0    -0.0
"Line.LINE53"                 1        0.0       -0.0       -0.0        0.0    -0.0    -0.0        0.0        0.0        0.0        0.0
"Line.LINE53"                 2       -0.0        0.0        0.0       -0.0     0.0     0.0
"Line.LINE59"                 1        0.0       -0.0       -0.0        0.0    -0.0    -0.0        0.0        0.0        0.0        0.0
"Line.LINE59"                 2       -0.0        0.0        0.0       -0.0     0.0     0.0
"Line.LINE66"                 1        0.0        0.0       -0.0        0.0    -0.0    -0.0        0.0        0.0        0.0        0.0
"Line.LINE66"                 2       -0.0       -0.0        0.0       -0.0     0.0     0.0
"Line.LINE74"                 1        0.0        0.0       -0.0        0.0    -0.0    -0.0        0.0        0.0        0.0        0.0
"Line.LINE74"                 2       -0.0       -0.0        0.0       -0.0     0.0     0.0
"Line.LINE79"                 1        0.0       -0.0        0.0        0.0     0.0    -0.0        0.0        0.0        0.0        0.0
"Line.LINE79"                 2       -0.0        0.0       -0.0       -0.0    -0.0     0.0
"Line.LINE84"                 1        0.0        0.0       -0.0       -0.0    -0.0    -0.0        0.0        0.0        0.0        0.0
"Line.LINE84"                 2       -0.0       -0.0        0.0        0.0     0.0     0.0
"Line.LINE88"                 1        0.0       -0.0       -0.0        0.0    -0.0    -0.0        0.0        0.0        0.0        0.0
"Line.LINE88"                 2       -0.0        0.0        0.0       -0.0     0.0     0.0
"Line.LINE52"                 1       54.2       17.8       -0.0       -0.0    -0.0     0.0        0.0        0.0        0.0        0.0
"Line.LINE52"                 2      -54.2      -17.8        0.0        0.0     0.0    -0.0
"Line.LINE58"                 1       54.2       17.8       -0.0       -0.0    -0.0     0.0        0.0        0.0        0.0        0.0
"Line.LINE58"                 2      -54.2      -17.8        0.0        0.0     0.0    -0.0
"Line.LINE65"                 1        2.1        0.7       -0.0       -0.0    -0.0     0.0        0.0        0.0        0.0        0.0
"Line.LINE65"                 2       -2.1       -0.7        0.0        0.0     0.0    -0.0
"Line.LINE73"                 1        1.1        0.3       -0.0       -0.0    -0.0     0.0        0.0        0.0        0.0        0.0
"Line.LINE73"                 2       -1.1       -0.3        0.0        0.0     0.0    -0.0
"Line.LINE72"                 1        1.1        0.3       -0.0       -0.0    -0.0     0.0        0.0        0.0        0.0        0.0
"Line.LINE72"                 2       -1.1       -0.3        0.0        0.0     0.0    -0.0
"Line.LINE64"                 1       52.1       17.1       -0.0       -0.0    -0.0    -0.0        0.0        0.0        0.0        0.0
"Line.LINE64"                 2      -52.1      -17.1        0.0        0.0     0.0     0.0
"Line.LINE71"                 1       52.1       17.1       -0.0       -0.0    -0.0    -0.0        0.0        0.0        0.0        0.0
"Line.LINE71"                 2      -52.0      -17.1        0.0        0.0     0.0     0.0
"Line.LINE78"                 1       52.0       17.1       -0.0       -0.0    -0.0    -0.0        0.0        0.0        0.0        0.0
"Line.LINE78"                 2      -52.0      -17.1        0.0        0.0     0.0     0.0
"Line.LINE83"                 1       52.0       17.1       -0.0       -0.0    -0.0    -0.0        0.0        0.0        0.0        0.0
"Line.LINE83"                 2      -52.0      -17.1        0.0        0.0     0.0     0.0
"Line.LINE87"                 1       52.0       17.1       -0.0       -0.0    -0.0    -0.0        0.0        0.0        0.0        0.0
"Line.LINE87"                 2      -52.0      -17.0        0.0        0.0     0.0     0.0
"Line.LINE91"                 1       52.0       17.0       -0.0       -0.0    -0.0    -0.0        0.0        0.0        0.0        0.0
"Line.LINE91"                 2      -52.0      -17.0        0.0        0.0     0.0     0.0
"Line.LINE94"                 1       52.0       17.0       -0.0       -0.0    -0.0    -0.0        0.0        0.0        0.0        0.0
"Line.LINE94"                 2      -52.0      -17.0        0.0        0.0     0.0     0.0
"Line.LINE97"                 1       52.0       17.0       -0.0       -0.0    -0.0    -0.0        0.0        0.0        0.0        0.0
"Line.LINE97"                 2      -52.0      -17.0        0.0        0.0     0.0     0.0
"Line.LINE100"                1       52.0       17.0       -0.0       -0.0    -0.0    -0.0        0.0        0.0        0.0        0.0
"Line.LINE100"                2      -52.0      -17.0        0.0        0.0     0.0     0.0
"Line.LINE104"                1       45.6       14.9       -0.0       -0.0    -0.0     0.0        0.0        0.0        0.0        0.0
"Line.LINE104"                2      -45.6      -14.9        0.0        0.0     0.0    -0.0
"Line.LINE107"                1       45.6       14.9       -0.0       -0.0    -0.0     0.0        0.0        0.0        0.0        0.0
"Line.LINE107"                2      -45.6      -14.9        0.0        0.0     0.0    -0.0
"Line.LINE110"                1       45.6       14.9       -0.0       -0.0    -0.0     0.0        0.0        0.0        0.0        0.0
"Line.LINE110"                2      -45.5      -14.9        0.0        0.0     0.0    -0.0
"Line.LINE113"                1       45.5       14.9       -0.0       -0.0    -0.0     0.0        0.0        0.0        0.0        0.0
"Line.LINE113"                2      -45.5      -14.9        0.0        0.0     0.0    -0.0
"Line.LINE117"                1       40.2       13.2       -0.0       -0.0    -0.0     0.0        0.0        0.0        0.0        0.0
"Line.LINE117"                2      -40.2      -13.2        0.0        0.0     0.0    -0.0
"Line.LINE122"                1       40.2       13.2       -0.0       -0.0    -0.0     0.0        0.0        0.0        0.0        0.0
"Line.LINE122"                2      -40.2      -13.2        0.0        0.0     0.0    -0.0
"Line.LINE127"                1       40.2       13.2       -0.0       -0.0    -0.0     0.0        0.0        0.0        0.0        0.0
"Line.LINE127"                2      -40.2      -13.2        0.0        0.0     0.0    -0.0
"Line.LINE133"                1       40.2       13.2       -0.0       -0.0    -0.0     0.0        0.0        0.0        0.0        0.0
"Line.LINE133"                2      -40.2      -13.2        0.0        0.0     0.0    -0.0
"Line.LINE139"                1       40.2       13.2       -0.0       -0.0    -0.0     0.0        0.0        0.0        0.0        0.0
"Line.LINE139"                2      -40.2      -13.2        0.0        0.0     0.0    -0.0
"Line.LINE145"                1       40.2       13.2       -0.0       -0.0    -0.0     0.0        0.0        0.0        0.0        0.0
"Line.LINE145"                2      -40.2      -13.2        0.0        0.0     0.0    -0.0
"Line.LINE152"                1       40.2       13.2       -0.0       -0.0    -0.0     0.0        0.0        0.0        0.0        0.0
"Line.LINE152"                2      -40.2      -13.2        0.0        0.0     0.0    -0.0
"Line.LINE159"                1       40.2       13.2       -0.0       -0.0    -0.0     0.0        0.0        0.0        0.0        0.0
"Line.LINE159"                2      -40.2      -13.2        0.0        0.0     0.0    -0.0
"Line.LINE167"                1       40.2       13.2       -0.0       -0.0    -0.0     0.0        0.0        0.0        0.0        0.0
"Line.LINE167"                2      -40.2      -13.2        0.0        0.0     0.0    -0.0
"Line.LINE176"                1       40.2       13.2       -0.0       -0.0    -0.0     0.0        0.0        0.0        0.0        0.0
"Line.LINE176"                2      -40.2      -13.2        0.0        0.0     0.0    -0.0
"Line.LINE185"                1       40.2       13.2       -0.0       -0.0    -0.0     0.0        0.0        0.0        0.0        0.0
"Line.LINE185"                2      -40.2      -13.2        0.0        0.0     0.0    -0.0
"Line.LINE194"                1       40.2       13.2       -0.0       -0.0    -0.0     0.0        0.0        0.0        0.0        0.0
"Line.LINE194"                2      -40.2      -13.2        0.0        0.0     0.0    -0.0
"Line.LINE204"                1       40.2       13.2       -0.0       -0.0    -0.0     0.0        0.0        0.0        0.0        0.0
"Line.LINE204"                2      -40.2      -13.2        0.0        0.0     0.0    -0.0
"Line.LINE214"                1       40.2       13.2       -0.0       -0.0    -0.0     0.0        0.0        0.0        0.0        0.0
"Line.LINE214"                2      -40.1      -13.2        0.0        0.0     0.0    -0.0
"Line.LINE223"                1       40.1       13.2       -0.0       -0.0    -0.0     0.0        0.0        0.0        0.0        0.0
"Line.LINE223"                2      -40.1      -13.2        0.0        0.0     0.0    -0.0
"Line.LINE231"                1       40.1       13.2       -0.0       -0.0    -0.0     0.0        0.0        0.0        0.0        0.0
"Line.LINE231"                2      -40.1      -13.2        0.0        0.0     0.0    -0.0
"Line.LINE239"                1       40.1       13.2       -0.0       -0.0    -0.0     0.0        0.0        0.0        0.0        0.0
"Line.LINE239"                2      -40.1      -13.2        0.0        0.0     0.0    -0.0
"Line.LINE246"                1       40.1       13.2       -0.0       -0.0    -0.0     0.0        0.0        0.0        0.0        0.0
"Line.LINE246"                2      -40.1      -13.2        0.0        0.0     0.0    -0.0
"Line.LINE255"                1       39.1       12.8       -0.0       -0.0    -0.0     0.0        0.0        0.0        0.0        0.0
"Line.LINE255"                2      -39.1      -12.8        0.0        0.0     0.0    -0.0
"Line.LINE262"                1       39.1       12.8       -0.0       -0.0    -0.0     0.0        0.0        0.0        0.0        0.0
"Line.LINE262"                2      -39.1      -12.8        0.0        0.0     0.0    -0.0
"Line.LINE271"                1       38.0       12.5       -0.0       -0.0    -0.0    -0.0        0.0        0.0        0.0        0.0
"Line.LINE271"                2      -38.0      -12.5        0.0        0.0     0.0     0.0
"Line.LINE279"                1       38.0       12.5       -0.0       -0.0    -0.0    -0.0        0.0        0.0        0.0        0.0
"Line.LINE279"                2      -38.0      -12.5        0.0        0.0     0.0     0.0
"Line.LINE287"                1       24.3        8.0        0.0        0.0     0.0    -0.0        0.0        0.0        0.0        0.0
"Line.LINE287"                2      -24.3       -8.0       -0.0       -0.0    -0.0     0.0
"Line.LINE296"                1       24.3        8.0        0.0        0.0     0.0    -0.0        0.0        0.0        0.0        0.0
"Line.LINE296"                2      -24.3       -8.0       -0.0       -0.0    -0.0     0.0
"Line.LINE303"                1       24.3        8.0        0.0        0.0     0.0    -0.0        0.0        0.0        0.0        0.0
"Line.LINE303"                2      -24.3       -8.0       -0.0       -0.0    -0.0     0.0
...
"Transformer.TR1"             1       59.0       19.4       -0.0       -0.0     0.0    -0.0        0.0        0.0        0.0        0.0
"Transformer.TR1"             2      -59.0      -19.3        0.0        0.0     0.0     0.0
"Load.LOAD5"                  1        0.0        0.0        0.0        0.0     0.0     0.0
"Load.LOAD4"                  1        0.0        0.0        0.0        0.0     0.0     0.0
"Load.LOAD24"                 1        0.0        0.0        0.0        0.0     0.0     0.0
"Load.LOAD51"                 1        0.0        0.0        0.0        0.0     0.0     0.0
"Load.LOAD54"                 1        0.0        0.0        0.0        0.0     0.0     0.0
"Load.LOAD45"                 1        0.0        0.0        0.0        0.0     0.0     0.0
"Load.LOAD41"                 1        0.0        0.0        0.0        0.0     0.0     0.0
"Load.LOAD47"                 1        0.0        0.0        0.0        0.0     0.0     0.0
"Load.LOAD43"                 1        0.0        0.0        0.0        0.0     0.0     0.0
"Load.LOAD50"                 1        0.0        0.0        0.0        0.0     0.0     0.0
"Load.LOAD53"                 1        0.0        0.0        0.0        0.0     0.0     0.0
"Load.LOAD52"                 1        0.0        0.0        0.0        0.0     0.0     0.0
"Load.LOAD55"                 1        0.0        0.0        0.0        0.0     0.0     0.0
"Load.LOAD40"                 1        0.0        0.0        0.0        0.0     0.0     0.0
"Load.LOAD39"                 1        0.0        0.0        0.0        0.0     0.0     0.0
"Load.LOAD42"                 1        0.0        0.0        0.0        0.0     0.0     0.0
"Load.LOAD46"                 1        0.0        0.0        0.0        0.0     0.0     0.0
"Load.LOAD49"                 1        0.0        0.0        0.0        0.0     0.0     0.0
"Load.LOAD48"                 1        0.0        0.0        0.0        0.0     0.0     0.0
"Load.LOAD38"                 1        0.0        0.0        0.0        0.0     0.0     0.0
"Load.LOAD32"                 1        0.0        0.0        0.0        0.0     0.0     0.0
"Load.LOAD44"                 1        0.0        0.0        0.0        0.0     0.0     0.0
"Load.LOAD26"                 1        0.0        0.0        0.0        0.0     0.0     0.0
"Load.LOAD27"                 1        0.0        0.0        0.0        0.0     0.0     0.0
"Load.LOAD28"                 1        0.0        0.0        0.0        0.0     0.0     0.0
"Load.LOAD34"                 1        0.0        0.0        0.0        0.0     0.0     0.0
"Load.LOAD25"                 1        0.0        0.0        0.0        0.0     0.0     0.0
"Load.LOAD30"                 1        0.0        0.0        0.0        0.0     0.0     0.0
"Load.LOAD29"                 1        0.0        0.0        0.0        0.0     0.0     0.0
"Load.LOAD31"                 1        0.0        0.0        0.0        0.0     0.0     0.0
"Load.LOAD36"                 1        0.0        0.0        0.0        0.0     0.0     0.0
"Load.LOAD37"                 1        0.0        0.0        0.0        0.0     0.0     0.0
"Load.LOAD33"                 1        0.0        0.0        0.0        0.0     0.0     0.0
"Load.LOAD35"                 1        0.0        0.0        0.0        0.0     0.0     0.0
"Load.LOAD23"                 1        0.0        0.0        0.0        0.0     0.0     0.0
"Load.LOAD18"                 1        0.0        0.0        0.0        0.0     0.0     0.0
"Load.LOAD22"                 1        0.0        0.0        0.0        0.0     0.0     0.0
"Load.LOAD20"                 1        0.0        0.0        0.0        0.0     0.0     0.0
"Load.LOAD19"                 1        0.0        0.0        0.0        0.0     0.0     0.0
"Load.LOAD21"                 1        0.0        0.0        0.0        0.0     0.0     0.0
"Load.LOAD15"                 1        0.0        0.0        0.0        0.0     0.0     0.0
"Load.LOAD13"                 1        0.0        0.0        0.0        0.0     0.0     0.0
"Load.LOAD17"                 1        0.0        0.0        0.0        0.0     0.0     0.0
"Load.LOAD16"                 1        0.0        0.0        0.0        0.0     0.0     0.0
"Load.LOAD14"                 1        0.0        0.0        0.0        0.0     0.0     0.0
"Load.LOAD12"                 1        0.0        0.0        0.0        0.0     0.0     0.0
"Load.LOAD8"                  1        0.0        0.0        0.0        0.0     0.0     0.0
"Load.LOAD11"                 1        0.0        0.0        0.0        0.0     0.0     0.0
"Load.LOAD10"                 1        0.0        0.0        0.0        0.0     0.0     0.0
"Load.LOAD9"                  1        0.0        0.0        0.0        0.0     0.0     0.0
"Load.LOAD7"                  1        0.0        0.0        0.0        0.0     0.0     0.0
"Load.LOAD2"                  1        0.0        0.0        0.0        0.0     0.0     0.0
"Load.LOAD6"                  1        0.0        0.0        0.0        0.0     0.0     0.0
"Load.LOAD3"                  1        0.0        0.0        0.0        0.0     0.0     0.0
"Load.LOAD1"                  1        0.0        0.0        0.0        0.0     0.0     0.0

Total Circuit Losses =    0.9 +j    0.3
